LTspice 24.1.5 for Windows
Circuit: C:\Users\ASUS\Desktop\FACULTAD\4to_anio\TC_2\TeoriadeCircuitos2\Circuitos\CircTarea1.net
Start Time: Mon Apr 20 20:39:51 2026
solver = Normal
Maximum thread count: 8
tnom = 27
temp = 27
method = modified trap
.OP point found by inspection.
Total elapsed time: 0.082 seconds.

Files loaded:
C:\Users\ASUS\Desktop\FACULTAD\4to_anio\TC_2\TeoriadeCircuitos2\Circuitos\CircTarea1.net
C:\Users\ASUS\AppData\Local\LTspice\lib\sub\opamp.sub

